                                   MODFLOW 6
                U.S. GEOLOGICAL SURVEY MODULAR HYDROLOGIC MODEL
                          GROUNDWATER FLOW MODEL (GWF)
                  VERSION 6.5.0.dev0 (preliminary) 01/29/2024
                               ***DEVELOP MODE***

   MODFLOW 6 compiled Jan 29 2024 03:01:13 with Intel(R) Fortran Intel(R) 64
   Compiler Classic for applications running on Intel(R) 64, Version 2021.7.0
                             Build 20220726_000000

This software is preliminary or provisional and is subject to 
revision. It is being provided to meet the need for timely best 
science. The software has not received final approval by the U.S. 
Geological Survey (USGS). No warranty, expressed or implied, is made 
by the USGS or the U.S. Government as to the functionality of the 
software and related material nor shall the fact of release 
constitute any such warranty. The software is provided on the 
condition that neither the USGS nor the U.S. Government shall be held 
liable for any damages resulting from the authorized or unauthorized 
use of the software.


As a work of the United States Government, this USGS product is 
in the public domain within the United States. You can copy, 
modify, distribute, and perform the work, even for commercial 
purposes, all without asking permission. Additionally, USGS 
waives copyright and related rights in the work worldwide 
through CC0 1.0 Universal Public Domain Dedication 
(https://creativecommons.org/publicdomain/zero/1.0/).

The following GNU Lesser General Public License (LGPL) libraries
are used in this USGS product:

    SPARSKIT version 2.0
      ilut, luson, and qsplit 
      (https://www-users.cse.umn.edu/~saad/software/SPARSKIT/)

    RCM - Reverse Cuthill McKee Ordering
      (https://people.math.sc.edu/Burkardt/f_src/rcm/rcm.html)

    BLAS - Basic Linear Algebra Subprograms Level 1
      (https://people.math.sc.edu/Burkardt/f_src/blas1_d/blas1_d.html)

    SPARSEKIT - Sparse Matrix Utility Package
      amux, dperm, dvperm, rperm, and cperm
      (https://people.sc.fsu.edu/~jburkardt/f77_src/sparsekit/sparsekit.html)

The following BSD-3 License libraries are used in this USGS product:

    Modern Fortran DAG Library
      Copyright (c) 2018, Jacob Williams
      All rights reserved.
      (https://github.com/jacobwilliams/daglib)

MODFLOW 6 compiler options: /Isrc\libmf6core.a.p /Isrc /I..\src
/Isrc\libmf6_external.a.p /MTd /nologo /warn:general /warn:truncated_source
/stand:f08 /Zi /traceback /O2 /fpe:0 /heap-arrays:0 /traceback /fpp
/Qdiag-disable:7416 /Qdiag-disable:7025 /Qdiag-disable:5268
/Fdsrc\libmf6core.a.p\Utilities_compilerversion.F90.pdb
/module:src\libmf6core.a.p
/Fosrc/libmf6core.a.p/Utilities_compilerversion.F90.obj /c

System command used to initiate simulation:
"C:\Users\00098687\OneDrive - The University of Western Australia\loop_to_flopy\exe\mf6.exe"

MODFLOW was compiled using uniform precision.

Real Variables
  KIND: 8
  TINY (smallest non-zero value):    2.225074-308
  HUGE (largest value):    1.797693+308
  PRECISION: 15
  SIZE IN BITS: 64

Integer Variables
  KIND: 4
  HUGE (largest value): 2147483647
  SIZE IN BITS: 32

Long Integer Variables
  KIND: 8
  HUGE (largest value): 9223372036854775807
  SIZE IN BITS: 64

Logical Variables
  KIND: 4
  SIZE IN BITS: 32
 
 NAMEFILE OPTIONS:
    NEWTON-RAPHSON method enabled for the model.
    NEWTON-RAPHSON UNDER-RELAXATION based on the bottom elevation of the model will be applied to the model.
    FLOWS WILL BE SAVED TO BUDGET FILE SPECIFIED IN OUTPUT CONTROL
 END NAMEFILE OPTIONS:

 DISU -- UNSTRUCTURED GRID DISCRETIZATION PACKAGE, VERSION 2 : 3/27/2014 - INPUT READ FROM MEMPATH: __INPUT__/REF/DISU                                


 Setting Discretization Options
    VERTICAL_OFFSET_TOLERANCE = .000000000000000
 End Setting Discretization Options

 Setting Discretization Dimensions
    NODES = 14109
    NJA = 168213
    NVERT = 2882
 End Setting Discretization Dimensions

 Setting Discretization Griddata
    TOP set from input file
    BOT set from input file
    AREA set from input file
 End Setting Discretization Griddata

 Setting Discretization Connectivity
    IAC set from input file
    JA set from input file
    IHC set from input file
    CL12 set from input file
    HWVA set from input file
    ANGLDEGX set from input file
 End Setting Discretization Connectivity

 Discretization Vertex data loaded
 Discretization Cell2d data loaded

 NPF -- NODE PROPERTY FLOW PACKAGE, VERSION 1, 3/30/2015 INPUT READ FROM MEMPATH: __INPUT__/REF/NPF                                 


 IC -- Initial Conditions Package, Version 8, 3/28/2015 input read from mempath: __INPUT__/REF/IC                                  


 Setting NPF Options
    XT3D formulation is selected.
 End Setting NPF Options

 Setting NPF Griddata
    ICELLTYPE set from input file
    K set from input file
    K33 set from input file
    K22 set from input file
    ANGLE1 set from input file
    ANGLE2 set from input file
    ANGLE3 set from input file
 End Setting NPF Griddata


 WEL   -- WEL PACKAGE, VERSION 8, 2/22/2014 INPUT READ FROM MEMPATH: __INPUT__/REF/WEL_0                               

 PROCESSING WEL BASE OPTIONS
    FLOWS WILL BE SAVED TO BUDGET FILE SPECIFIED IN OUTPUT CONTROL
    LISTS OF WEL CELLS WILL BE PRINTED.
    WEL FLOWS WILL BE PRINTED TO LISTING FILE.
 END OF WEL BASE OPTIONS

 PROCESSING WEL OPTIONS
 END OF WEL OPTIONS

 PROCESSING WEL BASE DIMENSIONS
    MAXBOUND =      12
 END OF WEL BASE DIMENSIONS

 RCH   -- RCH PACKAGE, VERSION 8, 2/22/2014 INPUT READ FROM MEMPATH: __INPUT__/REF/RCH_0                               

 PROCESSING RCH BASE OPTIONS
 END OF RCH BASE OPTIONS

 PROCESSING RCH OPTIONS
 END OF RCH OPTIONS

 PROCESSING RCH BASE DIMENSIONS
    MAXBOUND =    1280
 END OF RCH BASE DIMENSIONS

 CHD   -- CHD PACKAGE, VERSION 8, 2/22/2014 INPUT READ FROM MEMPATH: __INPUT__/REF/CHD_0                               

 PROCESSING CHD BASE OPTIONS
 END OF CHD BASE OPTIONS

 PROCESSING CHD BASE DIMENSIONS
    MAXBOUND =     729
 END OF CHD BASE DIMENSIONS
    STRT set from input file

 XT3D is active.



 STO -- STORAGE PACKAGE, VERSION 1, 5/19/2014 INPUT READ FROM UNIT 1005


 # File generated by Flopy version 3.4.1 on 07/22/2024 at 08:56:21.
 PROCESSING STORAGE OPTIONS
 END OF STORAGE OPTIONS
 PROCESSING GRIDDATA

                 ICONVERT = 1
 END PROCESSING GRIDDATA

The observation utility is active for "REF"
 # File generated by Flopy version 3.4.1 on 07/22/2024 at 08:56:21.

Processing observation options:

The PRINT_INPUT option has been specified.


 OBSERVATIONS READ FROM FILE "ref"
 ----------------------------------------------------------------------------------------------------------------------------------------------------------------------------------------------------------------------------
 NAME                                     TYPE                                       TIME         LOCATION DATA                              OUTPUT FILENAME                                                                 
 ----------------------------------------------------------------------------------------------------------------------------------------------------------------------------------------------------------------------------
 OB1_-25.0                                CONTINUOUS  HEAD                           ALL TIMES    "  1579"                                   ref_future.csv                                                                  
 OB1_-162.0                               CONTINUOUS  HEAD                           ALL TIMES    "  5015"                                   ref_future.csv                                                                  
 OB1_-326.0                               CONTINUOUS  HEAD                           ALL TIMES    "  8162"                                   ref_future.csv                                                                  
 OB2_-25.0                                CONTINUOUS  HEAD                           ALL TIMES    "  1580"                                   ref_future.csv                                                                  
 OB2_-50.0                                CONTINUOUS  HEAD                           ALL TIMES    "  2860"                                   ref_future.csv                                                                  
 OB2_-101.0                               CONTINUOUS  HEAD                           ALL TIMES    "  8163"                                   ref_future.csv                                                                  
 OB3_-25.0                                CONTINUOUS  HEAD                           ALL TIMES    "  1581"                                   ref_future.csv                                                                  
 OB3_-60.0                                CONTINUOUS  HEAD                           ALL TIMES    "  5016"                                   ref_future.csv                                                                  
 OB3_-121.0                               CONTINUOUS  HEAD                           ALL TIMES    "  8164"                                   ref_future.csv                                                                  
 OB4_-25.0                                CONTINUOUS  HEAD                           ALL TIMES    "  1582"                                   ref_future.csv                                                                  
 OB4_-99.0                                CONTINUOUS  HEAD                           ALL TIMES    "  5017"                                   ref_future.csv                                                                  
 OB4_-199.0                               CONTINUOUS  HEAD                           ALL TIMES    "  8165"                                   ref_future.csv                                                                  
 OB5_-25.0                                CONTINUOUS  HEAD                           ALL TIMES    "  1583"                                   ref_future.csv                                                                  
 OB5_-50.0                                CONTINUOUS  HEAD                           ALL TIMES    "  2863"                                   ref_future.csv                                                                  
 OB5_-73.0                                CONTINUOUS  HEAD                           ALL TIMES    "  8166"                                   ref_future.csv                                                                  
 ----------------------------------------------------------------------------------------------------------------------------------------------------------------------------------------------------------------------------


    BINARY GRID INFORMATION WILL BE WRITTEN TO:
      UNIT NUMBER: 1017
      FILE NAME: ref.disu.grb

 OPENED ref.disu.grb
 FILE TYPE:DATA(BINARY)   UNIT 1017   STATUS:REPLACE             
 FORMAT:UNFORMATTED            ACCESS:STREAM              
 ACTION:READWRITE           

      THE LAST TIME STEP WILL BE PRINTED
      THE LAST TIME STEP WILL BE PRINTED
 # File generated by Flopy version 3.4.1 on 07/22/2024 at 08:56:21.

 PROCESSING OC OPTIONS

    BUDGET INFORMATION WILL BE WRITTEN TO:
      UNIT NUMBER: 1018
      FILE NAME: ref.bud

 OPENED ref.bud
 FILE TYPE:DATA(BINARY)   UNIT 1018   STATUS:REPLACE             
 FORMAT:UNFORMATTED            ACCESS:STREAM              
 ACTION:READWRITE           

    HEAD INFORMATION WILL BE WRITTEN TO:
      UNIT NUMBER: 1019
      FILE NAME: ref.hds

 OPENED ref.hds
 FILE TYPE:DATA(BINARY)   UNIT 1019   STATUS:REPLACE             
 FORMAT:UNFORMATTED            ACCESS:STREAM              
 ACTION:READWRITE           

 END OF OC OPTIONS

start timestep kper="1" kstp="1" mode="normal"


 BEGIN READING OUTPUT CONTROL FOR STRESS PERIOD 1
      THE LAST TIME STEP WILL BE SAVED

 END READING OUTPUT CONTROL FOR STRESS PERIOD 1


 STRESS PERIOD 1 IS TRANSIENT

 ------------------
  WEL NO.    NODE  
 ------------------
     1       6968  
     2       8158  
     3       9348  
     4       6969  
     5       8159  
     6       9349  
     7       6970  
     8       8160  
     9       9350  
     10      6971  
     11      8161  
     12      9351  
 ------------------



 SLN_1 INNER ITERATION SUMMARY
 --------------------------------------------------------------------------------------------------------------------------------------
      TOTAL      OUTER      INNER                                                            MAXIMUM                                   
  ITERATION  ITERATION  ITERATION  MAXIMUM CHANGE      MAXIMUM CHANGE MODEL-(CELLID)        RESIDUAL    MAXIMUM RESIDUAL MODEL-(CELLID)
 --------------------------------------------------------------------------------------------------------------------------------------
          1          1          1      -1.5354051                      1_GWF-(12175)       110.21376                      1_GWF-(12390)
          2          1          2     -0.44066326                       1_GWF-(7938)       47.518121                      1_GWF-(12390)
          3          1          3     -0.68291285                       1_GWF-(6299)       33.056786                      1_GWF-(12541)
          4          1          4     -0.83765287                      1_GWF-(13804)       20.717066                      1_GWF-(11830)
          5          1          5     -0.39406034                      1_GWF-(13804)       11.841556                      1_GWF-(11830)
          6          1          6     -0.12620281                      1_GWF-(11830)       6.4510152                        1_GWF-(735)
          7          1          7 -7.16840062E-02                       1_GWF-(7232)       5.1351091                       1_GWF-(9600)
          8          1          8 -5.39338306E-02                      1_GWF-(11830)       1.9608330                      1_GWF-(14025)
          9          1          9  2.36909185E-03                      1_GWF-(11830)       1.8792071                      1_GWF-(14025)
         10          1         10 -2.43420281E-02                       1_GWF-(2037)      0.88620350                       1_GWF-(9600)
         11          1         11 -5.81807666E-03                       1_GWF-(1516)      0.56246660                      1_GWF-(13462)
         12          1         12 -7.41079305E-03                       1_GWF-(3360)      0.47388688                       1_GWF-(9600)
         13          1         13 -1.88923344E-03                       1_GWF-(3360)  9.77438645E-02                      1_GWF-(13901)
         14          1         14 -1.47823174E-03                      1_GWF-(13776)      0.12864253                       1_GWF-(9600)
         15          1         15 -2.86574452E-04                       1_GWF-(9600)  2.06160768E-02                      1_GWF-(13901)
         16          2          1 -1.11773156E-04                      1_GWF-(13776)  1.59996286E-02                      1_GWF-(13901)
 --------------------------------------------------------------------------------------------------------------------------------------



end timestep


start timestep kper="1" kstp="2" mode="normal"


 SLN_1 INNER ITERATION SUMMARY
 --------------------------------------------------------------------------------------------------------------------------------------
      TOTAL      OUTER      INNER                                                            MAXIMUM                                   
  ITERATION  ITERATION  ITERATION  MAXIMUM CHANGE      MAXIMUM CHANGE MODEL-(CELLID)        RESIDUAL    MAXIMUM RESIDUAL MODEL-(CELLID)
 --------------------------------------------------------------------------------------------------------------------------------------
          1          1          1     -0.46562807                       1_GWF-(8693)       17.792236                       1_GWF-(9939)
          2          1          2     -0.35833115                      1_GWF-(12524)      -20.076548                      1_GWF-(12121)
          3          1          3     -0.23528661                      1_GWF-(13257)       10.570199                      1_GWF-(13674)
          4          1          4     -0.15718181                      1_GWF-(12345)       7.7316273                      1_GWF-(13674)
          5          1          5 -9.96709275E-02                      1_GWF-(13804)       3.1150684                      1_GWF-(13804)
          6          1          6 -5.66941205E-02                      1_GWF-(13804)      -1.2894997                      1_GWF-(13287)
          7          1          7  2.26057203E-03                      1_GWF-(11165)     -0.94209957                      1_GWF-(13287)
          8          1          8 -2.25239547E-02                       1_GWF-(2836)     -0.61378070                      1_GWF-(11179)
          9          1          9 -1.07882904E-02                       1_GWF-(3042)       1.1145630                      1_GWF-(11179)
         10          1         10  6.08864566E-03                       1_GWF-(7141)     -0.11889941                      1_GWF-(11179)
         11          1         11 -1.29189529E-03                      1_GWF-(12345) -3.71251521E-02                      1_GWF-(11179)
         12          1         12 -4.31919542E-04                      1_GWF-(13804) -2.20746418E-02                      1_GWF-(13901)
         13          2          1  7.41943360E-05                        1_GWF-(830) -1.79923619E-02                      1_GWF-(13901)
 --------------------------------------------------------------------------------------------------------------------------------------



end timestep


start timestep kper="1" kstp="3" mode="normal"


 SLN_1 INNER ITERATION SUMMARY
 --------------------------------------------------------------------------------------------------------------------------------------
      TOTAL      OUTER      INNER                                                            MAXIMUM                                   
  ITERATION  ITERATION  ITERATION  MAXIMUM CHANGE      MAXIMUM CHANGE MODEL-(CELLID)        RESIDUAL    MAXIMUM RESIDUAL MODEL-(CELLID)
 --------------------------------------------------------------------------------------------------------------------------------------
          1          1          1     -0.42261834                       1_GWF-(8693)       14.003597                       1_GWF-(9939)
          2          1          2     -0.19529451                      1_GWF-(13106)      -12.311354                      1_GWF-(12121)
          3          1          3     -0.15133192                       1_GWF-(4637)       9.3276786                      1_GWF-(13674)
          4          1          4 -2.35558873E-02                      1_GWF-(13674)       6.3226084                      1_GWF-(12541)
          5          1          5     -0.12836347                      1_GWF-(10067)       2.9082457                      1_GWF-(13251)
          6          1          6 -7.52650321E-02                      1_GWF-(10067)      -1.9611329                      1_GWF-(13287)
          7          1          7 -1.38136859E-02                      1_GWF-(14000)      -1.5878505                      1_GWF-(12163)
          8          1          8 -2.34456252E-02                      1_GWF-(12642)      0.58095609                      1_GWF-(12541)
          9          1          9 -1.01489287E-02                      1_GWF-(12642)     -0.46025373                       1_GWF-(7762)
         10          1         10 -1.17484571E-02                      1_GWF-(12642)     -0.19913037                      1_GWF-(13901)
         11          1         11  4.17464261E-03                      1_GWF-(13776)      0.13590639                       1_GWF-(7762)
         12          1         12 -1.67445728E-03                       1_GWF-(9060) -3.82233072E-02                      1_GWF-(13698)
         13          1         13  1.77313374E-04                       1_GWF-(3310)  1.46066989E-02                      1_GWF-(13674)
         14          2          1  1.04419955E-04                       1_GWF-(5810) -1.26474860E-02                      1_GWF-(13901)
 --------------------------------------------------------------------------------------------------------------------------------------



end timestep


start timestep kper="1" kstp="4" mode="normal"


 SLN_1 INNER ITERATION SUMMARY
 --------------------------------------------------------------------------------------------------------------------------------------
      TOTAL      OUTER      INNER                                                            MAXIMUM                                   
  ITERATION  ITERATION  ITERATION  MAXIMUM CHANGE      MAXIMUM CHANGE MODEL-(CELLID)        RESIDUAL    MAXIMUM RESIDUAL MODEL-(CELLID)
 --------------------------------------------------------------------------------------------------------------------------------------
          1          1          1     -0.39623937                       1_GWF-(8693)       11.375824                      1_GWF-(12028)
          2          1          2     -0.14704621                      1_GWF-(10551)       9.2445757                      1_GWF-(14011)
          3          1          3 -8.13507566E-02                      1_GWF-(14011)      -5.1306700                      1_GWF-(12028)
          4          1          4  6.02835438E-02                       1_GWF-(3140)      -6.0483718                      1_GWF-(12026)
          5          1          5     -0.14474705                       1_GWF-(8977)       2.1808315                      1_GWF-(12390)
          6          1          6 -5.72514939E-02                      1_GWF-(12690)       1.3792042                      1_GWF-(13674)
          7          1          7 -4.05604313E-03                       1_GWF-(7264)       1.4551125                      1_GWF-(12541)
          8          1          8 -3.29655082E-02                      1_GWF-(12642)     -0.59105788                       1_GWF-(7762)
          9          1          9  8.85860874E-03                      1_GWF-(12642)      0.69560503                      1_GWF-(12541)
         10          1         10 -3.02054021E-02                      1_GWF-(12642)     -0.27698722                      1_GWF-(12163)
         11          1         11 -2.82749183E-03                      1_GWF-(12642) -9.73587064E-02                      1_GWF-(13901)
         12          1         12 -2.90880191E-03                      1_GWF-(13804) -4.94310930E-02                      1_GWF-(13302)
         13          1         13  2.18342985E-04                      1_GWF-(13776) -4.53350705E-02                      1_GWF-(13901)
         14          2          1  1.63367378E-04                       1_GWF-(5810) -3.82720591E-02                      1_GWF-(13901)
 --------------------------------------------------------------------------------------------------------------------------------------



end timestep


start timestep kper="1" kstp="5" mode="normal"


 SLN_1 INNER ITERATION SUMMARY
 --------------------------------------------------------------------------------------------------------------------------------------
      TOTAL      OUTER      INNER                                                            MAXIMUM                                   
  ITERATION  ITERATION  ITERATION  MAXIMUM CHANGE      MAXIMUM CHANGE MODEL-(CELLID)        RESIDUAL    MAXIMUM RESIDUAL MODEL-(CELLID)
 --------------------------------------------------------------------------------------------------------------------------------------
          1          1          1     -0.37163716                      1_GWF-(13182)       9.2521180                      1_GWF-(12028)
          2          1          2     -0.10754277                      1_GWF-(10551)       8.7143498                      1_GWF-(14011)
          3          1          3 -4.77198830E-02                      1_GWF-(14011)      -3.8169866                      1_GWF-(12121)
          4          1          4 -6.98520727E-02                       1_GWF-(3140)       4.7391497                      1_GWF-(13674)
          5          1          5 -2.02879034E-02                      1_GWF-(13674)       1.8975943                      1_GWF-(12390)
          6          1          6 -4.95408574E-02                      1_GWF-(12690)       1.5031766                      1_GWF-(13674)
          7          1          7 -7.41568362E-03                      1_GWF-(13674)       1.1610360                      1_GWF-(12541)
          8          1          8 -2.16969023E-02                      1_GWF-(12642)      0.56032944                      1_GWF-(13970)
          9          1          9 -1.37622665E-02                      1_GWF-(12642)      0.34423091                      1_GWF-(13821)
         10          1         10 -1.18572645E-02                      1_GWF-(12642)     -0.22361728                      1_GWF-(13901)
         11          1         11  2.38737740E-03                      1_GWF-(13776)     -0.29065602                      1_GWF-(12163)
         12          1         12 -3.19947369E-03                      1_GWF-(12642) -9.44820213E-02                      1_GWF-(13901)
         13          1         13  5.94262946E-04                      1_GWF-(13776) -9.38272356E-02                      1_GWF-(12163)
         14          2          1  6.74503063E-04                       1_GWF-(5048) -6.48574165E-02                      1_GWF-(13901)
 --------------------------------------------------------------------------------------------------------------------------------------



end timestep


start timestep kper="1" kstp="6" mode="normal"


 SLN_1 INNER ITERATION SUMMARY
 --------------------------------------------------------------------------------------------------------------------------------------
      TOTAL      OUTER      INNER                                                            MAXIMUM                                   
  ITERATION  ITERATION  ITERATION  MAXIMUM CHANGE      MAXIMUM CHANGE MODEL-(CELLID)        RESIDUAL    MAXIMUM RESIDUAL MODEL-(CELLID)
 --------------------------------------------------------------------------------------------------------------------------------------
          1          1          1     -0.35139577                       1_GWF-(1153)       7.4309452                      1_GWF-(12028)
          2          1          2 -7.23036044E-02                       1_GWF-(7603)       6.4468659                      1_GWF-(14011)
          3          1          3 -4.23595383E-02                       1_GWF-(9517)       3.0836537                      1_GWF-(14011)
          4          1          4 -5.99394765E-02                       1_GWF-(2426)       5.1856281                      1_GWF-(13674)
          5          1          5 -1.78966124E-02                      1_GWF-(13674)       1.6772788                      1_GWF-(13804)
          6          1          6 -3.08062141E-02                      1_GWF-(12690)       1.1777602                      1_GWF-(13674)
          7          1          7 -7.43720859E-02                      1_GWF-(13804)      -1.0267243                      1_GWF-(13901)
          8          1          8  3.83420543E-02                      1_GWF-(12690)      0.55451032                      1_GWF-(11831)
          9          1          9 -8.19732035E-03                      1_GWF-(12690)      0.32714272                      1_GWF-(13674)
         10          1         10 -7.44305641E-03                       1_GWF-(7538)      0.17068511                      1_GWF-(11831)
         11          1         11 -4.06208006E-03                      1_GWF-(11394)      0.11141040                      1_GWF-(13674)
         12          1         12 -1.99918126E-03                      1_GWF-(13804) -6.71120935E-02                      1_GWF-(12163)
         13          1         13 -1.48190726E-03                      1_GWF-(13804) -4.31728551E-02                      1_GWF-(13901)
         14          1         14  2.90628517E-04                      1_GWF-(13776)  4.64358154E-02                      1_GWF-(12133)
         15          2          1  3.15026989E-04                       1_GWF-(5810) -3.25874760E-02                      1_GWF-(11892)
 --------------------------------------------------------------------------------------------------------------------------------------



end timestep


start timestep kper="1" kstp="7" mode="normal"


 SLN_1 INNER ITERATION SUMMARY
 --------------------------------------------------------------------------------------------------------------------------------------
      TOTAL      OUTER      INNER                                                            MAXIMUM                                   
  ITERATION  ITERATION  ITERATION  MAXIMUM CHANGE      MAXIMUM CHANGE MODEL-(CELLID)        RESIDUAL    MAXIMUM RESIDUAL MODEL-(CELLID)
 --------------------------------------------------------------------------------------------------------------------------------------
          1          1          1     -0.32131993                        1_GWF-(520)       5.9974462                      1_GWF-(12028)
          2          1          2 -6.40863804E-02                        1_GWF-(888)       4.2719728                      1_GWF-(14011)
          3          1          3 -4.25187240E-02                       1_GWF-(7820)       2.6383078                      1_GWF-(14011)
          4          1          4 -3.52572430E-02                       1_GWF-(9564)       2.5721134                      1_GWF-(13674)
          5          1          5  4.91575024E-02                      1_GWF-(12363)      -3.3012643                      1_GWF-(12028)
          6          1          6 -8.45349064E-02                      1_GWF-(10318)      0.81917440                      1_GWF-(12175)
          7          1          7 -2.08186878E-02                      1_GWF-(13257)      0.80898717                      1_GWF-(13674)
          8          1          8 -8.64627673E-03                       1_GWF-(2835)      0.52465323                      1_GWF-(13674)
          9          1          9 -1.30960452E-02                       1_GWF-(2835)      0.31167741                      1_GWF-(10959)
         10          1         10  7.76559911E-04                      1_GWF-(12541)      0.27863695                      1_GWF-(11831)
         11          1         11 -1.10797949E-02                       1_GWF-(7538)     -0.16949189                      1_GWF-(12163)
         12          1         12 -2.31232581E-03                       1_GWF-(7538)     -0.10876761                      1_GWF-(13901)
         13          1         13 -1.79138040E-03                       1_GWF-(7538)     -0.11486044                      1_GWF-(12163)
         14          1         14 -1.17602568E-03                      1_GWF-(12642) -4.34021962E-02                      1_GWF-(13901)
         15          1         15  1.19317365E-03                      1_GWF-(13776) -5.10072305E-02                      1_GWF-(13068)
         16          1         16 -6.79718370E-05                       1_GWF-(6106) -2.12579798E-02                      1_GWF-(13412)
         17          2          1  2.64005680E-03                       1_GWF-(4853) -3.83757317E-02                      1_GWF-(11892)
         18          2          2  9.26075469E-05                       1_GWF-(9617) -1.20281302E-02                      1_GWF-(12029)
 --------------------------------------------------------------------------------------------------------------------------------------



end timestep


start timestep kper="1" kstp="8" mode="normal"


 SLN_1 INNER ITERATION SUMMARY
 --------------------------------------------------------------------------------------------------------------------------------------
      TOTAL      OUTER      INNER                                                            MAXIMUM                                   
  ITERATION  ITERATION  ITERATION  MAXIMUM CHANGE      MAXIMUM CHANGE MODEL-(CELLID)        RESIDUAL    MAXIMUM RESIDUAL MODEL-(CELLID)
 --------------------------------------------------------------------------------------------------------------------------------------
          1          1          1     -0.30746617                       1_GWF-(8215)       5.5005201                      1_GWF-(12028)
          2          1          2 -6.72880006E-02                        1_GWF-(888)       3.1925128                      1_GWF-(14026)
          3          1          3 -4.12635186E-02                      1_GWF-(12026)       2.1828277                      1_GWF-(14011)
          4          1          4 -2.82896083E-02                       1_GWF-(9564)       1.7051505                      1_GWF-(13674)
          5          1          5 -2.37996820E-02                       1_GWF-(3140)       1.8587191                      1_GWF-(13674)
          6          1          6 -7.11568784E-03                       1_GWF-(6207)       1.3187035                      1_GWF-(12541)
          7          1          7 -2.42328304E-02                      1_GWF-(12690)      0.76881325                      1_GWF-(13674)
          8          1          8 -2.58073944E-02                      1_GWF-(13804)     -0.37448814                      1_GWF-(13901)
          9          1          9 -2.22847505E-03                      1_GWF-(13821)     -0.50678001                      1_GWF-(13964)
         10          1         10  4.94432350E-03                        1_GWF-(935)      0.46485119                      1_GWF-(13964)
         11          1         11 -7.62518049E-03                      1_GWF-(12642)      0.11583332                      1_GWF-(13674)
         12          1         12 -2.70772261E-03                       1_GWF-(6870) -8.92774783E-02                      1_GWF-(12163)
         13          1         13 -2.09474206E-03                      1_GWF-(12642) -6.68859599E-02                      1_GWF-(13901)
         14          1         14  3.23026829E-04                      1_GWF-(13776)  5.91837058E-02                      1_GWF-(11165)
         15          2          1  8.37687396E-04                        1_GWF-(156) -5.07297179E-02                      1_GWF-(13901)
 --------------------------------------------------------------------------------------------------------------------------------------



end timestep


start timestep kper="1" kstp="9" mode="normal"


 SLN_1 INNER ITERATION SUMMARY
 --------------------------------------------------------------------------------------------------------------------------------------
      TOTAL      OUTER      INNER                                                            MAXIMUM                                   
  ITERATION  ITERATION  ITERATION  MAXIMUM CHANGE      MAXIMUM CHANGE MODEL-(CELLID)        RESIDUAL    MAXIMUM RESIDUAL MODEL-(CELLID)
 --------------------------------------------------------------------------------------------------------------------------------------
          1          1          1     -0.31041021                       1_GWF-(8215)       4.3080674                      1_GWF-(12028)
          2          1          2 -6.83022222E-02                        1_GWF-(888)       2.6825093                      1_GWF-(12028)
          3          1          3 -3.57654392E-02                      1_GWF-(12026)       2.0580314                      1_GWF-(12163)
          4          1          4 -2.34366719E-02                       1_GWF-(1392)       1.4009363                      1_GWF-(13302)
          5          1          5 -2.06926256E-02                       1_GWF-(2458)       1.4722864                      1_GWF-(13674)
          6          1          6 -1.96555712E-02                      1_GWF-(12541)       1.0754231                      1_GWF-(13674)
          7          1          7 -9.52807365E-03                      1_GWF-(13804)      0.93726304                      1_GWF-(13964)
          8          1          8 -1.50356316E-02                      1_GWF-(12642)      0.45827294                      1_GWF-(12541)
          9          1          9 -9.89952318E-03                      1_GWF-(12642)      0.30753982                      1_GWF-(12175)
         10          1         10 -1.19009167E-02                      1_GWF-(12642)     -0.14615742                      1_GWF-(13964)
         11          1         11 -1.27742635E-03                      1_GWF-(12642)      0.13107952                      1_GWF-(12175)
         12          1         12  5.46652645E-04                      1_GWF-(13776)      0.10516704                      1_GWF-(13674)
         13          1         13 -3.54630236E-03                       1_GWF-(7538)  8.78481971E-02                      1_GWF-(11165)
         14          1         14 -1.15999003E-03                      1_GWF-(12642) -6.43622238E-02                      1_GWF-(13901)
         15          1         15 -7.92606061E-04                      1_GWF-(12642)  6.83711109E-02                      1_GWF-(11165)
         16          2          1  5.27792573E-04                       1_GWF-(5810) -4.13510202E-02                       1_GWF-(8580)
 --------------------------------------------------------------------------------------------------------------------------------------



end timestep


start timestep kper="1" kstp="10" mode="normal"


 SLN_1 INNER ITERATION SUMMARY
 --------------------------------------------------------------------------------------------------------------------------------------
      TOTAL      OUTER      INNER                                                            MAXIMUM                                   
  ITERATION  ITERATION  ITERATION  MAXIMUM CHANGE      MAXIMUM CHANGE MODEL-(CELLID)        RESIDUAL    MAXIMUM RESIDUAL MODEL-(CELLID)
 --------------------------------------------------------------------------------------------------------------------------------------
          1          1          1     -0.30564885                       1_GWF-(5939)       3.8621527                      1_GWF-(12028)
          2          1          2 -6.89306793E-02                      1_GWF-(13040)       2.3811813                      1_GWF-(12028)
          3          1          3 -2.89186243E-02                       1_GWF-(5717)       2.0446435                      1_GWF-(12163)
          4          1          4 -2.32060478E-02                       1_GWF-(2128)       1.3962396                      1_GWF-(12460)
          5          1          5 -2.15871054E-02                       1_GWF-(2121)       1.3049835                      1_GWF-(13674)
          6          1          6 -1.38955315E-02                       1_GWF-(4715)       1.1290263                      1_GWF-(13674)
          7          1          7 -1.74826520E-02                      1_GWF-(10067)      0.75230168                      1_GWF-(13674)
          8          1          8 -1.31245006E-02                      1_GWF-(13804)      0.79927803                      1_GWF-(11165)
          9          1          9 -2.10198464E-02                      1_GWF-(12642)     -0.58136196                      1_GWF-(13964)
         10          1         10  5.87305025E-03                       1_GWF-(4436)     -0.33184320                      1_GWF-(12148)
         11          1         11 -7.53109778E-03                       1_GWF-(8374)      0.12711482                      1_GWF-(13674)
         12          1         12 -9.03807751E-03                       1_GWF-(7538)     -0.13391811                      1_GWF-(13964)
         13          1         13  4.03890495E-03                       1_GWF-(7538)     -0.12652101                      1_GWF-(12148)
         14          1         14 -1.30144321E-03                       1_GWF-(8374) -4.41336075E-02                      1_GWF-(13901)
         15          1         15 -7.42219344E-04                       1_GWF-(2835) -3.46265546E-02                      1_GWF-(13901)
         16          2          1  1.74203126E-03                       1_GWF-(6663) -5.38468535E-02                       1_GWF-(8580)
         17          2          2  1.96482074E-04                       1_GWF-(3257) -2.62903772E-02                      1_GWF-(13901)
 --------------------------------------------------------------------------------------------------------------------------------------



end timestep


start timestep kper="1" kstp="11" mode="normal"


 SLN_1 INNER ITERATION SUMMARY
 --------------------------------------------------------------------------------------------------------------------------------------
      TOTAL      OUTER      INNER                                                            MAXIMUM                                   
  ITERATION  ITERATION  ITERATION  MAXIMUM CHANGE      MAXIMUM CHANGE MODEL-(CELLID)        RESIDUAL    MAXIMUM RESIDUAL MODEL-(CELLID)
 --------------------------------------------------------------------------------------------------------------------------------------
          1          1          1     -0.29782960                      1_GWF-(12480)       4.1954393                      1_GWF-(10485)
          2          1          2 -6.67966361E-02                      1_GWF-(13040)       2.1806645                      1_GWF-(12028)
          3          1          3 -2.42582617E-02                      1_GWF-(11599)      -1.6719871                      1_GWF-(13327)
          4          1          4 -2.19465150E-02                       1_GWF-(2128)       1.4044335                      1_GWF-(12460)
          5          1          5 -2.26619643E-02                       1_GWF-(2121)       1.1293653                      1_GWF-(13674)
          6          1          6 -1.52112019E-02                      1_GWF-(14046)      0.99809058                      1_GWF-(13674)
          7          1          7 -1.60138466E-02                      1_GWF-(12345)      0.77410746                      1_GWF-(13674)
          8          1          8 -1.04846454E-02                      1_GWF-(10067)      0.67435641                      1_GWF-(11165)
          9          1          9 -1.18626624E-02                      1_GWF-(10067)     -0.40563869                      1_GWF-(10141)
         10          1         10 -1.05891128E-03                       1_GWF-(3347)      0.32347691                      1_GWF-(11165)
         11          1         11 -1.11684215E-02                      1_GWF-(13804)      0.21448687                      1_GWF-(13454)
         12          1         12 -3.90310562E-03                      1_GWF-(12642)      0.16053235                      1_GWF-(13454)
         13          1         13 -4.15769516E-03                      1_GWF-(12642)     -0.12693609                      1_GWF-(13901)
         14          1         14  5.14827637E-04                      1_GWF-(13776)      0.18199189                      1_GWF-(11165)
         15          1         15 -2.98736982E-03                       1_GWF-(8545)      0.14034345                      1_GWF-(11165)
         16          1         16 -1.16461832E-03                      1_GWF-(13804)  5.35516401E-02                      1_GWF-(11179)
         17          1         17  1.61381255E-04                       1_GWF-(6870) -2.85609187E-02                      1_GWF-(13901)
         18          2          1 -1.81804976E-02                       1_GWF-(5534)     -0.16264582                       1_GWF-(3636)
         19          2          2  4.11521320E-04                       1_GWF-(8138) -4.10482515E-02                      1_GWF-(12029)
         20          3          1  1.35826548E-03                       1_GWF-(7654) -4.05204528E-02                      1_GWF-(11892)
         21          3          2  3.26279647E-04                       1_GWF-(1550)  5.30527825E-02                      1_GWF-(10127)
 --------------------------------------------------------------------------------------------------------------------------------------



end timestep


start timestep kper="1" kstp="12" mode="normal"


 SLN_1 INNER ITERATION SUMMARY
 --------------------------------------------------------------------------------------------------------------------------------------
      TOTAL      OUTER      INNER                                                            MAXIMUM                                   
  ITERATION  ITERATION  ITERATION  MAXIMUM CHANGE      MAXIMUM CHANGE MODEL-(CELLID)        RESIDUAL    MAXIMUM RESIDUAL MODEL-(CELLID)
 --------------------------------------------------------------------------------------------------------------------------------------
          1          1          1     -0.28255754                      1_GWF-(12480)       4.0819240                      1_GWF-(10485)
          2          1          2 -6.24912857E-02                      1_GWF-(13040)       2.2109232                      1_GWF-(10144)
          3          1          3 -2.05577552E-02                      1_GWF-(13509)       1.6307642                      1_GWF-(13964)
          4          1          4 -1.94165789E-02                       1_GWF-(8611)       1.4637083                      1_GWF-(10141)
          5          1          5 -2.21705186E-02                       1_GWF-(2121)       1.1763638                      1_GWF-(13964)
          6          1          6 -1.83263225E-02                       1_GWF-(2121)       1.0188226                      1_GWF-(13462)
          7          1          7 -1.41742839E-02                      1_GWF-(12345)      0.79324918                      1_GWF-(13674)
          8          1          8 -1.16267601E-02                      1_GWF-(10067)     -0.57330914                      1_GWF-(12043)
          9          1          9 -1.10793389E-02                      1_GWF-(10067)      0.43726525                      1_GWF-(13674)
         10          1         10 -7.71645696E-04                      1_GWF-(13674)      0.38539438                      1_GWF-(12541)
         11          1         11 -1.29831555E-02                      1_GWF-(10067)      0.21372344                      1_GWF-(14109)
         12          1         12 -5.55653872E-03                      1_GWF-(13804)      0.21131344                      1_GWF-(11165)
         13          1         13 -5.12976189E-03                       1_GWF-(7759)     -0.23010846                      1_GWF-(13913)
         14          1         14 -2.76630838E-03                      1_GWF-(12642)      0.16439176                      1_GWF-(13913)
         15          1         15  4.61329032E-04                       1_GWF-(7538) -5.48662688E-02                      1_GWF-(13901)
         16          2          1  6.92287162E-04                       1_GWF-(7997) -6.39561158E-02                      1_GWF-(10485)
 --------------------------------------------------------------------------------------------------------------------------------------



end timestep


start timestep kper="1" kstp="13" mode="normal"


 SLN_1 INNER ITERATION SUMMARY
 --------------------------------------------------------------------------------------------------------------------------------------
      TOTAL      OUTER      INNER                                                            MAXIMUM                                   
  ITERATION  ITERATION  ITERATION  MAXIMUM CHANGE      MAXIMUM CHANGE MODEL-(CELLID)        RESIDUAL    MAXIMUM RESIDUAL MODEL-(CELLID)
 --------------------------------------------------------------------------------------------------------------------------------------
          1          1          1     -0.25957032                      1_GWF-(12480)       4.4876412                      1_GWF-(10485)
          2          1          2 -5.90302159E-02                      1_GWF-(13857)       2.1519370                      1_GWF-(10144)
          3          1          3 -2.10269114E-02                      1_GWF-(13509)       1.7727092                      1_GWF-(13504)
          4          1          4 -1.73362298E-02                       1_GWF-(9886)       1.5533012                      1_GWF-(13462)
          5          1          5 -2.00315094E-02                       1_GWF-(2128)       1.7482760                      1_GWF-(13462)
          6          1          6 -2.04041532E-02                       1_GWF-(2121)       1.5130358                      1_GWF-(13462)
          7          1          7 -1.51424777E-02                       1_GWF-(4715)      0.78362256                      1_GWF-(13674)
          8          1          8 -1.12488174E-02                      1_GWF-(10067)      0.94794665                      1_GWF-(11764)
          9          1          9 -1.28174894E-02                      1_GWF-(10067)     -0.46010199                      1_GWF-(13360)
         10          1         10  3.18221742E-03                      1_GWF-(13745)      0.74401259                      1_GWF-(11764)
         11          1         11 -1.08183938E-02                      1_GWF-(10067)      0.22070888                      1_GWF-(13674)
         12          1         12 -8.97052244E-03                      1_GWF-(13804)     -0.13009441                      1_GWF-(14049)
         13          1         13  1.48320833E-03                      1_GWF-(13776)     -0.25562360                      1_GWF-(13462)
         14          1         14 -2.56396257E-03                      1_GWF-(12642) -7.32206815E-02                      1_GWF-(13901)
         15          1         15 -1.19387541E-03                       1_GWF-(7538) -6.45817534E-02                      1_GWF-(13901)
         16          1         16 -9.02303353E-04                       1_GWF-(7538) -5.42995253E-02                      1_GWF-(13901)
         17          2          1  4.40159134E-03                       1_GWF-(6263) -7.02125520E-02                      1_GWF-(10485)
         18          2          2  3.48698131E-04                      1_GWF-(13744) -4.08400322E-02                      1_GWF-(13901)
 --------------------------------------------------------------------------------------------------------------------------------------



end timestep


start timestep kper="1" kstp="14" mode="normal"


 SLN_1 INNER ITERATION SUMMARY
 --------------------------------------------------------------------------------------------------------------------------------------
      TOTAL      OUTER      INNER                                                            MAXIMUM                                   
  ITERATION  ITERATION  ITERATION  MAXIMUM CHANGE      MAXIMUM CHANGE MODEL-(CELLID)        RESIDUAL    MAXIMUM RESIDUAL MODEL-(CELLID)
 --------------------------------------------------------------------------------------------------------------------------------------
          1          1          1     -0.23548422                      1_GWF-(12407)       4.8419391                      1_GWF-(10485)
          2          1          2 -6.15580754E-02                      1_GWF-(11651)       2.3431756                      1_GWF-(13430)
          3          1          3 -2.14008189E-02                      1_GWF-(13509)       1.7254874                      1_GWF-(13450)
          4          1          4 -1.72137094E-02                      1_GWF-(11137)       1.5089257                      1_GWF-(10141)
          5          1          5 -1.72149255E-02                       1_GWF-(2128)       1.3174391                      1_GWF-(13462)
          6          1          6 -2.01475066E-02                       1_GWF-(2121)       1.4742816                      1_GWF-(13462)
          7          1          7 -1.81892385E-02                       1_GWF-(2121)      0.70519470                      1_GWF-(13674)
          8          1          8  1.22336940E-03                      1_GWF-(12043)      0.73685468                      1_GWF-(13462)
          9          1          9 -9.07678680E-03                      1_GWF-(12690)      0.58577625                      1_GWF-(13674)
         10          1         10 -2.01956022E-02                      1_GWF-(13625)     -0.70134722                      1_GWF-(12043)
         11          1         11 -8.73259550E-03                      1_GWF-(13257)      0.21695303                      1_GWF-(13674)
         12          1         12 -8.01288764E-03                      1_GWF-(12345)      0.12611261                      1_GWF-(13821)
         13          1         13  5.57919485E-04                      1_GWF-(11137)      0.20633064                      1_GWF-(12043)
         14          1         14 -3.98897976E-03                      1_GWF-(12642) -8.76823546E-02                      1_GWF-(12043)
         15          1         15 -1.61059457E-03                       1_GWF-(7538) -6.12098217E-02                      1_GWF-(13901)
         16          1         16 -8.74793536E-04                       1_GWF-(7538) -9.02712895E-02                      1_GWF-(12043)
         17          2          1  8.77520185E-03                       1_GWF-(1301)     -0.11248176                        1_GWF-(237)
         18          2          2  3.60859447E-04                       1_GWF-(4376) -4.06556825E-02                      1_GWF-(13901)
 --------------------------------------------------------------------------------------------------------------------------------------



end timestep


start timestep kper="1" kstp="15" mode="normal"


 SLN_1 INNER ITERATION SUMMARY
 --------------------------------------------------------------------------------------------------------------------------------------
      TOTAL      OUTER      INNER                                                            MAXIMUM                                   
  ITERATION  ITERATION  ITERATION  MAXIMUM CHANGE      MAXIMUM CHANGE MODEL-(CELLID)        RESIDUAL    MAXIMUM RESIDUAL MODEL-(CELLID)
 --------------------------------------------------------------------------------------------------------------------------------------
          1          1          1     -0.21841300                      1_GWF-(11816)       5.1608059                      1_GWF-(10485)
          2          1          2 -7.16663480E-02                      1_GWF-(11651)       2.5300314                      1_GWF-(13430)
          3          1          3 -2.23428457E-02                      1_GWF-(11137)       1.8099388                      1_GWF-(13450)
          4          1          4 -2.01217564E-02                      1_GWF-(11137)       1.5017215                      1_GWF-(10141)
          5          1          5 -1.79326599E-02                      1_GWF-(13745)       1.1940205                      1_GWF-(13462)
          6          1          6 -1.62430326E-02                       1_GWF-(2121)       1.5826885                      1_GWF-(11764)
          7          1          7 -2.77375936E-02                       1_GWF-(2128)     -0.75282762                      1_GWF-(13424)
          8          1          8 -1.36751537E-02                      1_GWF-(11854)      0.63521828                      1_GWF-(13462)
          9          1          9 -1.06522962E-02                      1_GWF-(10067)     -0.38548023                      1_GWF-(13045)
         10          1         10 -1.02309117E-02                      1_GWF-(12690)      0.29804969                      1_GWF-(13674)
         11          1         11 -1.94608804E-03                      1_GWF-(11854)     -0.34995676                      1_GWF-(13360)
         12          1         12 -1.00752918E-02                      1_GWF-(11394)      0.18135561                      1_GWF-(13674)
         13          1         13 -6.49222873E-03                      1_GWF-(11394)      0.11958404                      1_GWF-(13821)
         14          1         14 -3.72031312E-03                       1_GWF-(7759)     -0.25208308                      1_GWF-(12043)
         15          1         15 -1.96865551E-02                       1_GWF-(8374)      -1.4203158                      1_GWF-(12028)
         16          1         16  1.71882991E-02                       1_GWF-(8374) -5.68115122E-02                      1_GWF-(12043)
         17          1         17 -9.05482529E-04                       1_GWF-(7538) -3.68557705E-02                      1_GWF-(13901)
         18          2          1 -1.29718299E-02                       1_GWF-(7347) -7.64659435E-02                      1_GWF-(10485)
         19          2          2  2.70151671E-04                       1_GWF-(3257) -2.94539565E-02                      1_GWF-(13901)
         20          3          1  9.00946737E-04                       1_GWF-(4980) -2.85446060E-02                      1_GWF-(13901)
 --------------------------------------------------------------------------------------------------------------------------------------



end timestep


start timestep kper="1" kstp="16" mode="normal"


 SLN_1 INNER ITERATION SUMMARY
 --------------------------------------------------------------------------------------------------------------------------------------
      TOTAL      OUTER      INNER                                                            MAXIMUM                                   
  ITERATION  ITERATION  ITERATION  MAXIMUM CHANGE      MAXIMUM CHANGE MODEL-(CELLID)        RESIDUAL    MAXIMUM RESIDUAL MODEL-(CELLID)
 --------------------------------------------------------------------------------------------------------------------------------------
          1          1          1     -0.23300316                       1_GWF-(9798)       5.4867851                      1_GWF-(10485)
          2          1          2 -8.23415828E-02                      1_GWF-(11651)       2.7431890                      1_GWF-(13430)
          3          1          3 -2.32940995E-02                      1_GWF-(11137)       1.9410218                      1_GWF-(13450)
          4          1          4 -2.13077220E-02                      1_GWF-(11137)       1.4567545                      1_GWF-(10141)
          5          1          5 -1.32702855E-02                      1_GWF-(11370)       1.2035385                      1_GWF-(13462)
          6          1          6 -1.59626743E-02                       1_GWF-(2121)       1.6850546                      1_GWF-(13462)
          7          1          7 -2.63924216E-02                       1_GWF-(2128)     -0.59879014                      1_GWF-(14051)
          8          1          8  8.05544112E-03                      1_GWF-(13431)       1.0438969                      1_GWF-(13462)
          9          1          9 -8.50706412E-03                       1_GWF-(4974)      0.44628928                      1_GWF-(13964)
         10          1         10 -8.86675365E-03                       1_GWF-(4455)      0.36497942                      1_GWF-(13674)
         11          1         11 -9.86739757E-03                      1_GWF-(12690)      0.27369301                      1_GWF-(13674)
         12          1         12  6.98911951E-04                       1_GWF-(4304)      0.27911666                      1_GWF-(13674)
         13          1         13 -1.17571534E-02                      1_GWF-(11394)      0.27263720                      1_GWF-(12043)
         14          1         14 -4.62916307E-03                      1_GWF-(11394)      0.10134053                      1_GWF-(13821)
         15          1         15  7.43717888E-02                       1_GWF-(8374)      0.89581160                      1_GWF-(13674)
         16          1         16 -8.06207710E-02                       1_GWF-(8374)  7.12565460E-02                      1_GWF-(12121)
         17          1         17 -9.52766561E-04                       1_GWF-(4455)  3.59201200E-02                      1_GWF-(12028)
         18          2          1 -2.31956072E-02                       1_GWF-(7908)     -0.16951296                       1_GWF-(8744)
         19          2          2  4.79184733E-04                      1_GWF-(13604) -7.36671314E-02                       1_GWF-(2496)
         20          3          1  3.52560537E-03                      1_GWF-(13842) -6.45501256E-02                       1_GWF-(2496)
         21          3          2  4.08618507E-04                       1_GWF-(2496) -3.42120633E-02                      1_GWF-(13450)
 --------------------------------------------------------------------------------------------------------------------------------------



end timestep


start timestep kper="1" kstp="17" mode="normal"


 SLN_1 INNER ITERATION SUMMARY
 --------------------------------------------------------------------------------------------------------------------------------------
      TOTAL      OUTER      INNER                                                            MAXIMUM                                   
  ITERATION  ITERATION  ITERATION  MAXIMUM CHANGE      MAXIMUM CHANGE MODEL-(CELLID)        RESIDUAL    MAXIMUM RESIDUAL MODEL-(CELLID)
 --------------------------------------------------------------------------------------------------------------------------------------
          1          1          1     -0.24855737                       1_GWF-(9027)       5.6705327                      1_GWF-(10485)
          2          1          2 -9.31357407E-02                      1_GWF-(11651)       2.9498190                      1_GWF-(13430)
          3          1          3 -2.67904457E-02                      1_GWF-(13985)       2.0329579                      1_GWF-(13450)
          4          1          4 -2.34725646E-02                      1_GWF-(11137)       1.4835037                      1_GWF-(10141)
          5          1          5 -1.34697948E-02                      1_GWF-(11370)       1.2117067                      1_GWF-(10141)
          6          1          6 -1.31136911E-02                      1_GWF-(13108)       1.6055547                      1_GWF-(13462)
          7          1          7 -2.97396109E-02                       1_GWF-(2128)     -0.59624763                      1_GWF-(12676)
          8          1          8  1.34290812E-02                      1_GWF-(13431)       1.0595651                      1_GWF-(14051)
          9          1          9 -7.49373810E-03                       1_GWF-(8263)      0.45615292                      1_GWF-(13964)
         10          1         10 -8.21473919E-03                       1_GWF-(4455)      0.34906487                      1_GWF-(13674)
         11          1         11 -9.63308924E-03                      1_GWF-(12690)      0.27323408                      1_GWF-(13674)
         12          1         12 -8.09926196E-04                       1_GWF-(2835)      0.26096140                      1_GWF-(13674)
         13          1         13 -9.14444924E-03                      1_GWF-(13257)      0.17495034                      1_GWF-(13674)
         14          1         14 -6.08469086E-03                      1_GWF-(13257)      0.12042869                      1_GWF-(13821)
         15          1         15  5.93442964E-04                      1_GWF-(13257)      0.12597194                      1_GWF-(13821)
         16          1         16 -8.31620305E-03                       1_GWF-(7538)     -0.12253855                      1_GWF-(12043)
         17          1         17  4.68315488E-03                      1_GWF-(13257)     -0.26650710                      1_GWF-(12028)
         18          1         18 -6.15221179E-03                      1_GWF-(13257)  2.04856618E-02                      1_GWF-(13674)
         19          1         19 -8.67760495E-04                      1_GWF-(10067) -1.21260817E-02                      1_GWF-(12028)
         20          2          1 -4.86713511E-02                       1_GWF-(7105)     -0.12759583                      1_GWF-(13327)
         21          2          2 -9.92994666E-04                       1_GWF-(6724) -4.63565361E-02                      1_GWF-(11659)
         22          3          1  1.54756814E-03                       1_GWF-(8007) -3.84775819E-02                      1_GWF-(11407)
         23          3          2  3.36444970E-04                       1_GWF-(3418) -1.94509520E-02                      1_GWF-(13287)
 --------------------------------------------------------------------------------------------------------------------------------------



end timestep


start timestep kper="1" kstp="18" mode="normal"


 SLN_1 INNER ITERATION SUMMARY
 --------------------------------------------------------------------------------------------------------------------------------------
      TOTAL      OUTER      INNER                                                            MAXIMUM                                   
  ITERATION  ITERATION  ITERATION  MAXIMUM CHANGE      MAXIMUM CHANGE MODEL-(CELLID)        RESIDUAL    MAXIMUM RESIDUAL MODEL-(CELLID)
 --------------------------------------------------------------------------------------------------------------------------------------
          1          1          1     -0.27383995                      1_GWF-(12779)       5.1090646                      1_GWF-(11659)
          2          1          2     -0.10789647                      1_GWF-(13201)       3.0903700                      1_GWF-(13430)
          3          1          3 -3.68954487E-02                      1_GWF-(13985)       2.1545331                      1_GWF-(13450)
          4          1          4 -2.63645855E-02                      1_GWF-(11137)       1.4779481                      1_GWF-(10141)
          5          1          5 -2.14554915E-02                      1_GWF-(11137)       1.1484088                      1_GWF-(13424)
          6          1          6 -2.81005185E-02                      1_GWF-(13985)       1.1986201                      1_GWF-(12028)
          7          1          7 -2.20493361E-02                       1_GWF-(2128)      -1.0580386                      1_GWF-(14051)
          8          1          8  3.96048147E-03                       1_GWF-(6454)      0.76666828                      1_GWF-(14051)
          9          1          9 -4.87265145E-03                       1_GWF-(2121)      0.47541199                      1_GWF-(13742)
         10          1         10 -1.26194317E-02                       1_GWF-(4304)      0.47002246                      1_GWF-(14051)
         11          1         11 -8.59289518E-03                       1_GWF-(6098)      0.32313056                      1_GWF-(13674)
         12          1         12  6.50330707E-04                      1_GWF-(12613)      0.30916560                      1_GWF-(13674)
         13          1         13 -1.19433191E-02                      1_GWF-(12690)      0.24218375                      1_GWF-(12043)
         14          1         14 -6.39910069E-03                      1_GWF-(12345)      0.14563028                      1_GWF-(12882)
         15          1         15      0.29561207                       1_GWF-(8374)      -3.9359194                      1_GWF-(13110)
         16          1         16     -0.30506453                       1_GWF-(8374)     -0.18157362                      1_GWF-(13045)
         17          1         17 -1.12293956E-03                       1_GWF-(8374)  4.59086865E-02                      1_GWF-(12121)
         18          1         18 -1.29642652E-03                       1_GWF-(8374)  2.99666341E-02                      1_GWF-(13069)
         19          1         19 -1.13972265E-03                       1_GWF-(3754) -3.13135389E-02                      1_GWF-(13045)
         20          1         20 -3.87261984E-04                       1_GWF-(8374) -1.10679846E-02                      1_GWF-(13901)
         21          2          1 -6.28249757E-02                       1_GWF-(6235)      0.29505957                      1_GWF-(13059)
         22          2          2 -1.11299813E-03                      1_GWF-(13744)      0.10730410                       1_GWF-(4376)
         23          2          3 -6.13611317E-04                      1_GWF-(11449)  3.26044238E-02                      1_GWF-(13658)
         24          3          1  6.21737592E-04                       1_GWF-(1068)  2.38391918E-02                      1_GWF-(13658)
 --------------------------------------------------------------------------------------------------------------------------------------



end timestep


start timestep kper="1" kstp="19" mode="normal"


 SLN_1 INNER ITERATION SUMMARY
 --------------------------------------------------------------------------------------------------------------------------------------
      TOTAL      OUTER      INNER                                                            MAXIMUM                                   
  ITERATION  ITERATION  ITERATION  MAXIMUM CHANGE      MAXIMUM CHANGE MODEL-(CELLID)        RESIDUAL    MAXIMUM RESIDUAL MODEL-(CELLID)
 --------------------------------------------------------------------------------------------------------------------------------------
          1          1          1     -0.29218960                      1_GWF-(12779)       5.1106888                      1_GWF-(11659)
          2          1          2     -0.12570397                      1_GWF-(13201)       3.2379067                      1_GWF-(13430)
          3          1          3 -4.87852354E-02                      1_GWF-(13985)       2.3495172                      1_GWF-(13450)
          4          1          4 -2.95880652E-02                      1_GWF-(11137)       1.5952799                      1_GWF-(13698)
          5          1          5      0.10715823                      1_GWF-(13985)      -3.5222705                      1_GWF-(13740)
          6          1          6     -0.11487947                      1_GWF-(13985)       1.0133466                      1_GWF-(12028)
          7          1          7 -1.67432185E-02                       1_GWF-(2128)      -1.4664335                      1_GWF-(14051)
          8          1          8  1.00364125E-02                      1_GWF-(11144)      0.63685973                      1_GWF-(14051)
          9          1          9 -4.17199065E-03                       1_GWF-(2121)      0.51184237                      1_GWF-(13742)
         10          1         10 -1.23938131E-02                       1_GWF-(4304)      0.57985286                      1_GWF-(14051)
         11          1         11 -7.15846097E-03                       1_GWF-(4304)      0.31365349                      1_GWF-(13674)
         12          1         12  1.06461770E-02                       1_GWF-(4974)      0.38951757                      1_GWF-(13674)
         13          1         13 -2.38716520E-02                      1_GWF-(13257)     -0.46408370                      1_GWF-(13110)
         14          1         14 -7.10819606E-03                      1_GWF-(12345)      0.14977583                      1_GWF-(12229)
         15          1         15  7.49737650E-03                       1_GWF-(8374)      0.22315665                      1_GWF-(13674)
         16          1         16 -1.60065254E-02                       1_GWF-(8374)      0.10825488                      1_GWF-(12028)
         17          1         17 -1.96639004E-03                       1_GWF-(3754)  5.58437936E-02                      1_GWF-(12229)
         18          1         18 -1.82761400E-03                       1_GWF-(8374) -4.48471903E-02                      1_GWF-(13424)
         19          1         19 -1.25004124E-03                       1_GWF-(9070) -3.43720338E-02                      1_GWF-(13045)
         20          1         20 -8.41169357E-04                       1_GWF-(8374)  1.46973391E-02                      1_GWF-(12882)
         21          2          1 -2.61726578E-02                       1_GWF-(4420)     -0.28285550                      1_GWF-(13740)
         22          2          2  9.37944382E-04                       1_GWF-(8426)     -0.12790093                      1_GWF-(13740)
         23          2          3  1.06744212E-03                      1_GWF-(11340) -4.70254966E-02                      1_GWF-(13740)
         24          2          4  7.21234579E-04                      1_GWF-(11484) -2.47425742E-02                      1_GWF-(13450)
         25          3          1  3.80146082E-03                       1_GWF-(4522) -5.84101988E-02                      1_GWF-(13740)
         26          3          2  2.39163878E-04                       1_GWF-(3762) -2.20400093E-02                      1_GWF-(13740)
 --------------------------------------------------------------------------------------------------------------------------------------



end timestep


start timestep kper="1" kstp="20" mode="normal"


 SLN_1 INNER ITERATION SUMMARY
 --------------------------------------------------------------------------------------------------------------------------------------
      TOTAL      OUTER      INNER                                                            MAXIMUM                                   
  ITERATION  ITERATION  ITERATION  MAXIMUM CHANGE      MAXIMUM CHANGE MODEL-(CELLID)        RESIDUAL    MAXIMUM RESIDUAL MODEL-(CELLID)
 --------------------------------------------------------------------------------------------------------------------------------------
          1          1          1     -0.30044374                       1_GWF-(9341)       5.0337313                      1_GWF-(11659)
          2          1          2     -0.14004279                      1_GWF-(13201)       3.3607252                      1_GWF-(13430)
          3          1          3 -6.05548664E-02                      1_GWF-(13985)       2.4398318                      1_GWF-(13450)
          4          1          4 -3.31143081E-02                      1_GWF-(11137)       1.6563413                      1_GWF-(13698)
          5          1          5  4.95740502E-03                      1_GWF-(13064)       1.8575256                      1_GWF-(13698)
          6          1          6 -3.01048779E-02                      1_GWF-(13337)       1.2786413                      1_GWF-(14051)
          7          1          7 -8.23175732E-03                      1_GWF-(13742)     -0.99676389                      1_GWF-(14051)
          8          1          8  1.17374499E-02                      1_GWF-(13985)      0.63631517                      1_GWF-(13964)
          9          1          9 -1.77384291E-02                       1_GWF-(2121)      0.79460890                      1_GWF-(13110)
         10          1         10  5.71493288E-03                      1_GWF-(11767)      0.45493678                      1_GWF-(13964)
         11          1         11 -7.05747142E-03                       1_GWF-(6753)      0.34595214                      1_GWF-(13674)
         12          1         12 -9.99507177E-03                       1_GWF-(4304)      0.28703515                      1_GWF-(13674)
         13          1         13 -1.90316561E-03                      1_GWF-(13804)     -0.32792440                      1_GWF-(14051)
         14          1         14 -1.06241083E-02                      1_GWF-(12690)      0.19416327                      1_GWF-(12882)
         15          1         15  1.14646208E-03                      1_GWF-(13257)      0.19985777                      1_GWF-(13279)
         16          1         16 -1.13144939E-02                       1_GWF-(8374)     -0.19745952                      1_GWF-(13360)
         17          1         17 -3.09204489E-03                       1_GWF-(8374)  7.92402917E-02                      1_GWF-(13279)
         18          1         18 -2.61068906E-03                       1_GWF-(8374)  7.07782080E-02                      1_GWF-(11767)
         19          1         19 -1.41199053E-03                       1_GWF-(8374) -5.07342428E-02                      1_GWF-(13360)
         20          1         20 -1.34096732E-03                       1_GWF-(8374) -3.00689155E-02                      1_GWF-(13045)
         21          1         21  2.59306702E-05                      1_GWF-(13776) -3.04971854E-02                      1_GWF-(13424)
         22          2          1 -2.66351008E-02                      1_GWF-(11944)      0.13883991                      1_GWF-(12771)
         23          2          2  1.47053523E-03                      1_GWF-(14068) -3.72371241E-02                      1_GWF-(13127)
         24          2          3 -3.57952524E-04                      1_GWF-(13623) -3.12514749E-02                      1_GWF-(13167)
         25          3          1  1.95588908E-03                       1_GWF-(9485) -2.33274065E-02                      1_GWF-(13424)
         26          3          2  5.11726289E-04                      1_GWF-(14068) -1.80336390E-02                      1_GWF-(13450)
 --------------------------------------------------------------------------------------------------------------------------------------



end timestep


start timestep kper="1" kstp="21" mode="normal"


 SLN_1 INNER ITERATION SUMMARY
 --------------------------------------------------------------------------------------------------------------------------------------
      TOTAL      OUTER      INNER                                                            MAXIMUM                                   
  ITERATION  ITERATION  ITERATION  MAXIMUM CHANGE      MAXIMUM CHANGE MODEL-(CELLID)        RESIDUAL    MAXIMUM RESIDUAL MODEL-(CELLID)
 --------------------------------------------------------------------------------------------------------------------------------------
          1          1          1     -0.31251897                      1_GWF-(10220)       4.9365199                      1_GWF-(11659)
          2          1          2     -0.14921124                      1_GWF-(13201)       3.4475957                      1_GWF-(13430)
          3          1          3 -7.13888783E-02                      1_GWF-(13985)       2.5500346                      1_GWF-(13450)
          4          1          4 -3.46093781E-02                      1_GWF-(11137)       1.7291184                      1_GWF-(13698)
          5          1          5      0.13597278                      1_GWF-(13985)      -3.0839821                      1_GWF-(13509)
          6          1          6     -0.11750324                      1_GWF-(13985)      0.91057867                      1_GWF-(14051)
          7          1          7 -8.70210475E-03                      1_GWF-(11144)      0.65973459                      1_GWF-(14026)
          8          1          8  1.67709176E-02                      1_GWF-(13985)      0.69828256                      1_GWF-(14051)
          9          1          9 -9.36621376E-03                       1_GWF-(9239)      0.42550338                      1_GWF-(12460)
         10          1         10 -9.67934645E-04                      1_GWF-(13674)      0.42973831                      1_GWF-(13742)
         11          1         11 -8.56456783E-03                       1_GWF-(4304)     -0.41777050                      1_GWF-(13110)
         12          1         12 -7.86617360E-03                       1_GWF-(4304)      0.28474607                      1_GWF-(13674)
         13          1         13  7.35092410E-04                       1_GWF-(4304)      0.28848470                      1_GWF-(13279)
[...]
         21          1         21 -6.53252145E-03                       1_GWF-(6916)      0.11939866                      1_GWF-(14051)
         22          1         22  1.38708230E-03                      1_GWF-(13804)     -0.12775799                      1_GWF-(14051)
         23          1         23 -9.60099239E-04                      1_GWF-(12229)  8.68066698E-02                      1_GWF-(13964)
         24          2          1 -2.90432426E-02                       1_GWF-(4133)      0.17844439                      1_GWF-(11001)
         25          2          2 -1.63481869E-03                      1_GWF-(12996)  6.93029398E-02                      1_GWF-(13964)
         26          2          3 -9.27119518E-04                      1_GWF-(11484) -9.21353812E-02                      1_GWF-(13740)
         27          3          1  1.88322965E-03                       1_GWF-(6428)  5.91184917E-02                      1_GWF-(13964)
         28          3          2  1.08958163E-03                      1_GWF-(11481)  6.89753659E-02                      1_GWF-(11001)
         29          3          3 -1.60799001E-03                       1_GWF-(1702) -3.71067271E-02                       1_GWF-(3476)
         30          3          4 -9.32147955E-04                       1_GWF-(1702)  2.41528197E-02                      1_GWF-(13740)
 --------------------------------------------------------------------------------------------------------------------------------------



end timestep


start timestep kper="1" kstp="28" mode="normal"


 SLN_1 INNER ITERATION SUMMARY
 --------------------------------------------------------------------------------------------------------------------------------------
      TOTAL      OUTER      INNER                                                            MAXIMUM                                   
  ITERATION  ITERATION  ITERATION  MAXIMUM CHANGE      MAXIMUM CHANGE MODEL-(CELLID)        RESIDUAL    MAXIMUM RESIDUAL MODEL-(CELLID)
 --------------------------------------------------------------------------------------------------------------------------------------
          1          1          1     -0.21598922                       1_GWF-(2636)       3.5637310                      1_GWF-(13317)
          2          1          2     -0.14826822                       1_GWF-(3793)       3.1625440                      1_GWF-(11407)
          3          1          3 -5.71368933E-02                      1_GWF-(13201)       2.6597388                      1_GWF-(11407)
          4          1          4      0.26184783                       1_GWF-(1480)       5.8651159                      1_GWF-(11407)
          5          1          5     -0.35722152                        1_GWF-(802)       2.2513764                      1_GWF-(14051)
          6          1          6 -2.71388621E-02                       1_GWF-(1764)       1.2023742                      1_GWF-(13698)
          7          1          7  1.66173468E-02                       1_GWF-(3793)      0.86726454                      1_GWF-(13698)
          8          1          8 -8.95032178E-03                      1_GWF-(13431)      0.74641143                      1_GWF-(13424)
          9          1          9 -1.10874766E-02                      1_GWF-(13431)     -0.56540267                       1_GWF-(7233)
         10          1         10  1.80290869E-03                      1_GWF-(13985)      0.50379729                      1_GWF-(14026)
         11          1         11 -8.53451008E-03                       1_GWF-(6565)      0.38855599                      1_GWF-(14026)
         12          1         12 -1.18341566E-02                       1_GWF-(8048)      0.29630856                      1_GWF-(14109)
         13          1         13 -3.42730467E-03                       1_GWF-(7759)     -0.53499813                      1_GWF-(14051)
         14          1         14 -5.73146397E-03                       1_GWF-(2804)      0.26523692                      1_GWF-(13279)
         15          1         15 -8.50919267E-03                       1_GWF-(8877)      0.23309342                      1_GWF-(13279)
         16          1         16  2.69526485E-03                      1_GWF-(13669)      0.44188417                      1_GWF-(13069)
         17          1         17  1.90247025E-02                      1_GWF-(12345)       1.5750037                      1_GWF-(13981)
         18          1         18 -2.65720097E-02                      1_GWF-(12345)      0.15875956                      1_GWF-(13964)
         19          1         19 -3.96172598E-03                      1_GWF-(13257)      0.14075022                      1_GWF-(13964)
         20          1         20 -4.76146802E-03                      1_GWF-(13257)      0.10242682                      1_GWF-(13742)
         21          1         21 -7.39058620E-03                       1_GWF-(3310)      0.16918669                      1_GWF-(13981)
         22          1         22  2.93028246E-03                      1_GWF-(13257)  8.08369586E-02                      1_GWF-(13964)
         23          1         23 -1.23187428E-03                      1_GWF-(12229)  7.12558884E-02                      1_GWF-(13964)
         24          1         24 -1.75263345E-03                       1_GWF-(2094) -8.11778469E-02                      1_GWF-(14051)
         25          1         25 -1.02885566E-03                      1_GWF-(12229)  3.99149219E-02                      1_GWF-(13964)
         26          1         26 -7.82936163E-04                       1_GWF-(1392)  3.19123222E-02                      1_GWF-(13964)
         27          2          1 -2.64793671E-02                       1_GWF-(1641)      0.15142221                      1_GWF-(13740)
         28          2          2  1.65941188E-03                      1_GWF-(12658)  4.84835241E-02                      1_GWF-(13740)
         29          2          3  7.04667548E-04                        1_GWF-(192) -3.49659809E-02                      1_GWF-(13360)
         30          3          1  1.54763867E-03                      1_GWF-(13785)  2.52500067E-02                      1_GWF-(13742)
         31          3          2  6.41337729E-04                      1_GWF-(12658) -2.30658879E-02                      1_GWF-(13450)
 --------------------------------------------------------------------------------------------------------------------------------------



end timestep


start timestep kper="1" kstp="29" mode="normal"


 SLN_1 INNER ITERATION SUMMARY
 --------------------------------------------------------------------------------------------------------------------------------------
      TOTAL      OUTER      INNER                                                            MAXIMUM                                   
  ITERATION  ITERATION  ITERATION  MAXIMUM CHANGE      MAXIMUM CHANGE MODEL-(CELLID)        RESIDUAL    MAXIMUM RESIDUAL MODEL-(CELLID)
 --------------------------------------------------------------------------------------------------------------------------------------
          1          1          1     -0.19808324                       1_GWF-(2723)       3.0406331                      1_GWF-(13127)
          2          1          2     -0.14569390                       1_GWF-(3793)       2.8302392                      1_GWF-(11407)
          3          1          3 -5.38790688E-02                       1_GWF-(9176)       2.4636850                      1_GWF-(11407)
          4          1          4      0.12793141                       1_GWF-(1480)       3.5411315                      1_GWF-(11407)
          5          1          5     -0.23793137                        1_GWF-(802)       2.1186086                      1_GWF-(14051)
          6          1          6 -2.72320708E-02                       1_GWF-(1764)       1.1728522                      1_GWF-(13698)
          7          1          7  1.71876125E-02                       1_GWF-(3793)     -0.82705621                      1_GWF-(14051)
          8          1          8  9.57586108E-03                       1_GWF-(7722)      0.73106793                      1_GWF-(13424)
          9          1          9 -1.26721058E-02                      1_GWF-(13431)     -0.51705143                       1_GWF-(7233)
         10          1         10 -5.35357937E-03                       1_GWF-(7722)      0.48009781                       1_GWF-(7233)
         11          1         11 -7.00951727E-03                      1_GWF-(13431)      0.39225109                      1_GWF-(14026)
         12          1         12 -1.04666312E-02                       1_GWF-(5468)      0.27127671                      1_GWF-(14109)
         13          1         13 -2.12089356E-03                       1_GWF-(2835)      0.26811590                      1_GWF-(13069)
         14          1         14 -7.79020738E-03                       1_GWF-(4617)      0.25890313                      1_GWF-(13279)
         15          1         15  6.82331703E-03                      1_GWF-(13963)      0.27457850                      1_GWF-(13279)
         16          1         16 -2.14945717E-02                       1_GWF-(6870)     -0.55509139                      1_GWF-(13014)
         17          1         17 -3.00227729E-03                      1_GWF-(13257)     -0.41132106                      1_GWF-(13110)
         18          1         18  4.97038807E-04                      1_GWF-(13110)      0.15532685                      1_GWF-(13964)
         19          1         19 -4.51082613E-03                       1_GWF-(4928)      0.12378803                      1_GWF-(13742)
         20          1         20 -4.36148016E-03                       1_GWF-(4928)  9.46592014E-02                      1_GWF-(13742)
         21          1         21 -7.47219153E-03                       1_GWF-(4928)  5.23614829E-02                      1_GWF-(13791)
         22          1         22  2.98058306E-03                       1_GWF-(3739) -7.29022384E-02                      1_GWF-(14051)
         23          1         23 -8.00236465E-04                      1_GWF-(14046)  5.41895148E-02                      1_GWF-(13742)
         24          2          1 -3.71918287E-02                      1_GWF-(13678)     -0.10891520                       1_GWF-(3531)
         25          2          2 -1.86981836E-03                       1_GWF-(1492)  5.11221197E-02                      1_GWF-(13742)
         26          2          3  6.80481001E-04                      1_GWF-(12971) -4.83468484E-02                      1_GWF-(13519)
         27          3          1  1.56447520E-03                      1_GWF-(10431)  4.45760462E-02                      1_GWF-(13742)
         28          3          2  7.49417712E-04                       1_GWF-(1492)  3.48540335E-02                      1_GWF-(13742)
 --------------------------------------------------------------------------------------------------------------------------------------



end timestep


start timestep kper="1" kstp="30" mode="normal"


 SLN_1 INNER ITERATION SUMMARY
 --------------------------------------------------------------------------------------------------------------------------------------
      TOTAL      OUTER      INNER                                                            MAXIMUM                                   
  ITERATION  ITERATION  ITERATION  MAXIMUM CHANGE      MAXIMUM CHANGE MODEL-(CELLID)        RESIDUAL    MAXIMUM RESIDUAL MODEL-(CELLID)
 --------------------------------------------------------------------------------------------------------------------------------------
          1          1          1     -0.17902439                      1_GWF-(10352)       2.5978127                      1_GWF-(13127)
          2          1          2     -0.14708457                       1_GWF-(7722)       2.4976948                      1_GWF-(11407)
          3          1          3 -5.44410315E-02                      1_GWF-(11570)       2.2309038                      1_GWF-(11407)
          4          1          4  1.03810082E-02                       1_GWF-(1779)       1.9573968                      1_GWF-(11407)
          5          1          5     -0.13226451                      1_GWF-(13878)       1.3054329                      1_GWF-(14051)
          6          1          6 -3.56733964E-02                       1_GWF-(7722)       1.1744964                      1_GWF-(13698)
          7          1          7 -1.62672788E-02                       1_GWF-(1764)      0.77070599                      1_GWF-(13424)
          8          1          8  1.57330869E-02                       1_GWF-(7722)      0.93169937                      1_GWF-(14051)
          9          1          9      0.85846552                      1_GWF-(13431)       56.140283                       1_GWF-(7233)
         10          1         10     -0.86985108                      1_GWF-(13431)      0.45686948                       1_GWF-(7233)
         11          1         11 -5.98871879E-03                      1_GWF-(13431)      0.36841050                      1_GWF-(14026)
         12          1         12 -1.01608541E-02                      1_GWF-(13431)      0.25817841                      1_GWF-(13279)
         13          1         13 -1.39158771E-03                       1_GWF-(7759)      0.24858201                      1_GWF-(13279)
         14          1         14 -9.13311537E-03                       1_GWF-(9517)      0.25347628                      1_GWF-(13279)
         15          1         15 -1.50524076E-02                        1_GWF-(675)      0.26169775                      1_GWF-(13110)
         16          1         16  9.69580770E-03                      1_GWF-(13431)     -0.30876672                      1_GWF-(13014)
         17          1         17 -1.68903141E-03                       1_GWF-(4715)     -0.34962894                      1_GWF-(13110)
         18          1         18  5.74391101E-04                       1_GWF-(4715)      0.16554451                      1_GWF-(13964)
         19          1         19 -4.91039815E-03                      1_GWF-(13257)      0.12998295                      1_GWF-(13742)
         20          1         20 -3.95511427E-03                       1_GWF-(4928)      0.10330544                      1_GWF-(13742)
         21          1         21 -3.60220698E-03                       1_GWF-(4928)  7.83547503E-02                      1_GWF-(13742)
         22          1         22  1.82874108E-03                      1_GWF-(14046)  9.13355894E-02                      1_GWF-(13742)
         23          1         23 -3.82296269E-03                      1_GWF-(14046)  6.16189121E-02                      1_GWF-(13742)
         24          1         24 -2.26288430E-03                      1_GWF-(12229) -5.28412432E-02                      1_GWF-(14051)
         25          1         25 -1.02300887E-03                      1_GWF-(12229)  3.08730152E-02                      1_GWF-(13742)
         26          1         26 -6.09248790E-04                       1_GWF-(1391)  2.46337128E-02                      1_GWF-(13742)
         27          2          1 -1.99516744E-02                        1_GWF-(879)     -0.14637896                      1_GWF-(10306)
         28          2          2  3.52435197E-03                       1_GWF-(4576) -3.64178293E-02                      1_GWF-(13430)
         29          2          3  1.54385050E-03                       1_GWF-(1764) -3.08043238E-02                      1_GWF-(13430)
         30          2          4 -4.02930042E-04                      1_GWF-(11863) -4.06830566E-02                      1_GWF-(13430)
         31          3          1  3.67365047E-03                       1_GWF-(4023) -3.09644982E-02                      1_GWF-(13430)
         32          3          2  1.48813094E-03                       1_GWF-(2678)  3.58201677E-02                       1_GWF-(2759)
         33          3          3  1.51059000E-03                       1_GWF-(1764)  2.65522730E-02                      1_GWF-(13497)
         34          3          4 -1.71420937E-03                       1_GWF-(1764)  1.40070064E-02                      1_GWF-(13742)
         35          3          5  3.63488722E-04                       1_GWF-(6466)  9.98728526E-03                      1_GWF-(13742)
 --------------------------------------------------------------------------------------------------------------------------------------



 WEL PACKAGE (WEL_0) FLOW RATES   PERIOD      1   STEP       30
 -----------------------------------------------
   NUMBER   CELLID                    RATE      
 -----------------------------------------------
     1      (6968)               -1666.6667     
     2      (8158)               -1666.6667     
     3      (9348)               -1666.6667     
     4      (6969)               -1666.6667     
     5      (8159)               -1666.6667     
     6      (9349)               -1666.6667     
     7      (6970)               -1666.6667     
     8      (8160)               -1666.6667     
     9      (9350)               -1666.6667     
     10     (6971)               -1666.6667     
     11     (8161)               -1666.6667     
     12     (9351)               -1666.6667     
 -----------------------------------------------




 HEAD WILL BE SAVED ON UNIT 1019 AT END OF TIME STEP   30, STRESS PERIOD    1


  VOLUME BUDGET FOR ENTIRE MODEL AT END OF TIME STEP   30, STRESS PERIOD   1
  ---------------------------------------------------------------------------------------------------

     CUMULATIVE VOLUME      L**3       RATES FOR THIS TIME STEP      L**3/T          PACKAGE NAME    
     ------------------                 ------------------------                     ----------------

           IN:                                      IN:
           ---                                      ---
              STO-SS =     2242823.2110                STO-SS =         424.4965     STORAGE                          
              STO-SY =     5537534.4914                STO-SY =        1862.1963     STORAGE                          
                 WEL =           0.0000                   WEL =           0.0000     WEL_0                            
                 RCH =    71999973.0000                   RCH =       39452.0400     RCH_0                            
                 CHD =    36386040.8727                   CHD =       20694.8941     CHD_0                            

            TOTAL IN =   116166371.5751              TOTAL IN =       62433.6269

          OUT:                                     OUT:
          ----                                     ----
              STO-SS =           0.0000                STO-SS =           0.0000     STORAGE                          
              STO-SY =           0.0000                STO-SY =           0.0000     STORAGE                          
                 WEL =    36500000.0001                   WEL =       20000.0000     WEL_0                            
                 RCH =           0.0000                   RCH =           0.0000     RCH_0                            
                 CHD =    79674234.0091                   CHD =       42435.6547     CHD_0                            

           TOTAL OUT =   116174234.0092             TOTAL OUT =       62435.6547

            IN - OUT =       -7862.4341              IN - OUT =          -2.0277

 PERCENT DISCREPANCY =          -0.01     PERCENT DISCREPANCY =          -0.00




         TIME SUMMARY AT END OF TIME STEP   30 IN STRESS PERIOD    1
                          TIME STEP LENGTH =    305.453    
                        STRESS PERIOD TIME =    1825.00    
                     TOTAL SIMULATION TIME =    1825.00    

end timestep

